L6/1726533/Vaos.dss
! ==========================================================
! VAOS DE SAIDA — barra de MT da SE -> cabeceira do alimentador
! Derivado de CTMT.BARR e CTMT.UNI_TR_AT: a BDGD nao modela o
! arranjo interno da subestacao, so o vinculo logico.
! Cada vao e o disjuntor de saida do alimentador.
! ==========================================================
New Line.VAO_ALSD204 phases=3 Bus1=2758714662.1.2.3 Bus2=segm_2544650744.1.2.3 Switch=y r1=0.0001 r0=0.0001 x1=0 x0=0 c1=0 c0=0
New Monitor.M_ALSD204 element=Line.VAO_ALSD204 terminal=1 mode=1 ppolar=no
New Line.VAO_ALSD210 phases=3 Bus1=2758714662.1.2.3 Bus2=segm_2544650730.1.2.3 Switch=y r1=0.0001 r0=0.0001 x1=0 x0=0 c1=0 c0=0
New Monitor.M_ALSD210 element=Line.VAO_ALSD210 terminal=1 mode=1 ppolar=no
New Line.VAO_ALSD208 phases=3 Bus1=2758714662.1.2.3 Bus2=segm_2544650716.1.2.3 Switch=y r1=0.0001 r0=0.0001 x1=0 x0=0 c1=0 c0=0
New Monitor.M_ALSD208 element=Line.VAO_ALSD208 terminal=1 mode=1 ppolar=no
